FoamFile { version 2.0; format ascii; class dictionary; object transportProperties; }
transportModel  Newtonian;
nu              {{ nu }};
rho             {{ rho }};

// ************************************************************************* //
