FoamFile { version 2.0; format ascii; class volScalarField; object p; }
dimensions      [0 2 -2 0 0 0 0];
internalField   uniform 0;
boundaryField
{
    inlet { type zeroGradient; }
    outlet { type fixedValue; value uniform 0; }
    top { type zeroGradient; }
    bottom { type zeroGradient; }
    cylinder { type zeroGradient; }
    zMin { type zeroGradient; }
    zMax { type zeroGradient; }
    defaultFaces { type zeroGradient; }
}

// ************************************************************************* //
