FoamFile { version 2.0; format ascii; class volVectorField; object U; }
dimensions      [0 1 -1 0 0 0 0];
internalField   uniform ({{ velocity }} 0 0);
boundaryField
{
    inlet { type fixedValue; value uniform ({{ velocity }} 0 0); }
    outlet { type zeroGradient; }
    top { type slip; }
    bottom { type slip; }
    cylinder { type noSlip; }
    zMin { type slip; }
    zMax { type slip; }
    defaultFaces { type zeroGradient; }
}

// ************************************************************************* //
